[Format]      =  4.0
[Frequency]   =  0
[Precision]   =  1e-008
[MinAngle]    =  30
[DoSmartMesh] =  1
[Depth]       =  1
[LengthUnits] =  centimeters
[ProblemType] =  axisymmetric
[Coordinates] =  cartesian
[ACSolver]    =  0
[PrevType]    =  0
[PrevSoln]    =  ""
[Comment]     =  "Add comments here."
[PointProps]   = 0
[BdryProps]   = 1
  <BeginBdry>
    <BdryName> = "Bordo_aria"
    <BdryType> = 0
    <A_0> = 0
    <A_1> = 0
    <A_2> = 0
    <Phi> = 0
    <c0> = 0
    <c0i> = 0
    <c1> = 0
    <c1i> = 0
    <Mu_ssd> = 0
    <Sigma_ssd> = 0
    <innerangle> = 0
    <outerangle> = 0
  <EndBdry>
[BlockProps]  = 3
  <BeginBlock>
    <BlockName> = "Air"
    <Mu_x> = 1
    <Mu_y> = 1
    <H_c> = 0
    <H_cAngle> = 0
    <J_re> = 0
    <J_im> = 0
    <Sigma> = 0
    <d_lam> = 0
    <Phi_h> = 0
    <Phi_hx> = 0
    <Phi_hy> = 0
    <LamType> = 0
    <LamFill> = 1
    <NStrands> = 0
    <WireD> = 0
    <BHPoints> = 0
  <EndBlock>
  <BeginBlock>
    <BlockName> = "NbTi"
    <Mu_x> = 1
    <Mu_y> = 1
    <H_c> = 0
    <H_cAngle> = 0
    <J_re> = 50.911999999999999
    <J_im> = 0
    <Sigma> = 100000000000000
    <d_lam> = 0
    <Phi_h> = 0
    <Phi_hx> = 0
    <Phi_hy> = 0
    <LamType> = 0
    <LamFill> = 1
    <NStrands> = 0
    <WireD> = 0
    <BHPoints> = 0
  <EndBlock>
  <BeginBlock>
    <BlockName> = "Pure Iron"
    <Mu_x> = 14872
    <Mu_y> = 14872
    <H_c> = 0
    <H_cAngle> = 0
    <J_re> = 0
    <J_im> = 0
    <Sigma> = 10.44
    <d_lam> = 0
    <Phi_h> = 0
    <Phi_hx> = 0
    <Phi_hy> = 0
    <LamType> = 0
    <LamFill> = 1
    <NStrands> = 0
    <WireD> = 0
    <BHPoints> = 21
      0	0
      0.22706499999999999	13.898400000000001
      0.45412999999999998	27.796700000000001
      0.68119499999999999	42.397399999999998
      0.90825999999999996	61.415700000000001
      1.13533	82.382400000000004
      1.36239	144.66900000000001
      1.58935	897.75999999999999
      1.81236	4581.7399999999998
      2.01004	17736.200000000001
      2.1331600000000002	41339.300000000003
      2.1999900000000001	68321.800000000003
      2.2547899999999998	95685.5
      2.2999299999999998	123355
      2.3425099999999999	151083
      2.3787600000000002	178954
      2.4150100000000001	206825
      2.45126	234696
      2.4874999999999998	262568
      2.5237500000000002	290439
      2.5600000000000001	318310
  <EndBlock>
[CircuitProps]  = 1
  <BeginCircuit>
    <CircuitName> = "Coil"
    <TotalAmps_re> = 2902
    <TotalAmps_im> = 0
    <CircuitType> = 1
  <EndCircuit>
[NumPoints] = 37
260	210	0	0
260	-210	0	0
261	210	0	0
261	-210	0	0
0	-1200	0	0
0	1200	0	0
1750	1200	0	0
1750	-1200	0	0
291	235	0	0
291	-235	0	0
275	265	0	0
275	-265	0	0
331	265	0	0
331	-265	0	0
275	-305	0	0
275	305	0	0
150	-265	0	0
150	265	0	0
140	-305	0	0
140	305	0	0
130	230	0	0
130	-230	0	0
80	230	0	0
80	-230	0	0
170	230	0	0
170	210	0	0
170	-230	0	0
170	-210	0	0
35	210	0	0
35	-210	0	0
35	215	0	0
35	-215	0	0
290	305	0	0
290	-305	0	0
262	-265	0	0
260.5	-210	0	0
260.5	210	0	0
[NumSegments] = 34
4	7	-1	1	0	0
6	5	-1	1	0	0
7	6	-1	1	0	0
9	8	-1	0	0	0
27	26	-1	0	0	0
27	29	-1	0	0	0
29	31	-1	0	0	0
31	23	-1	0	0	0
26	21	-1	0	0	0
21	16	-1	0	0	0
11	34	-1	0	0	0
14	18	-1	0	0	0
9	11	-1	0	0	0
8	10	-1	0	0	0
10	17	-1	0	0	0
15	19	-1	0	0	0
17	20	-1	0	0	0
20	24	-1	0	0	0
24	25	-1	0	0	0
25	28	-1	0	0	0
28	30	-1	0	0	0
30	22	-1	0	0	0
32	15	-1	0	0	0
33	14	-1	0	0	0
4	5	-1	0	0	0
2	36	-1	0	0	0
3	35	-1	0	0	0
12	13	-1	0	0	0
0	1	-1	0	0	0
3	2	-1	0	0	0
34	16	-1	0	0	0
35	1	-1	0	0	0
36	0	-1	0	0	0
35	36	-1	0	0	0
[NumArcSegments] = 4
19	22	90	1	0	0	0	1
12	32	90	1	0	0	0	1
33	13	90	1	0	0	0	1
23	18	90	1	0	0	0	1
[NumHoles] = 0
[NumBlockLabels] = 4
381	344	1	-1	0	0	0	1	0
316	132	3	-1	0	0	0	1	0
260.32999999999998	-180.55000000000001	2	-1	1	0	0	368	0
260.83999999999997	208.49000000000001	2	-1	1	0	0	368	0
